Circuit: * D:\Users\Kelan\OneDrive - Jacobs University\Documents\3 Jacobs University\Thesis\Detlef Gabel\Projects\Extra Hardware Code\Simulations\transistor2.asc

Direct Newton iteration for .op point succeeded.

Date: Thu Apr 22 22:19:57 2021
Total elapsed time: 0.135 seconds.

tnom = 27
temp = 27
method = modified trap
totiter = 2147
traniter = 2129
tranpoints = 896
accept = 784
rejected = 112
matrix size = 17
fillins = 6
solver = Normal
Matrix Compiler1: 1.47 KB object code size  0.3/0.2/[0.1]
Matrix Compiler2: 1.49 KB object code size  0.2/0.2/[0.1]

