Circuit: * D:\Users\Kelan\OneDrive - Jacobs University\Documents\3 Jacobs University\Thesis\Detlef Gabel\Projects\Extra Hardware Code\Simulations\Opamp\Opamp.asc

Direct Newton iteration failed to find .op point.  (Use ".option noopiter" to skip.)
Starting Gmin stepping
Gmin = 10
Gmin = 1.07374
vernier = 0.5
vernier = 0.25
vernier = 0.125
vernier = 0.0625
Gmin = 1.08884
vernier = 0.03125
vernier = 0.015625
Gmin = 1.03122
vernier = 0.0078125
vernier = 0.00390625
Gmin = 1.01823
vernier = 0.00520833
vernier = 0.00260417
Gmin = 1.01162
vernier = 0.00347222
vernier = 0.00173611
vernier = 0.000868055
Gmin = 1.00899
vernier = 0.00115741
vernier = 0.000578703
Gmin = 1.0071
vernier = 0.000771604
vernier = 0.000578703
Gmin = 1.00579
vernier = 0.000771604
vernier = 0.000578703
vernier = 0.000434027
Gmin = 1.00499
vernier = 0.000578703
vernier = 0.000434027
Gmin = 0
Gmin stepping failed

Starting source stepping with srcstepmethod=0
Source Step = 3.0303%
Source Step = 33.3333%
Source Step = 63.6364%
Source Step = 88.6364%
Source Step = 96.2121%
Source stepping succeeded in finding the operating point.


Date: Sun May 02 17:28:26 2021
Total elapsed time: 0.519 seconds.

tnom = 27
temp = 27
method = modified trap
totiter = 8878
traniter = 2172
tranpoints = 678
accept = 620
rejected = 58
matrix size = 39
fillins = 41
solver = Normal
Matrix Compiler1: 3.45 KB object code size  1.6/0.9/[0.4]
Matrix Compiler2: off  [0.7]/0.8/1.3

