Circuit: * D:\Users\Kelan\OneDrive - Jacobs University\Documents\3 Jacobs University\Thesis\Detlef Gabel\Projects\Extra Hardware Code\Simulations\Transistor\Draft1.asc

Direct Newton iteration for .op point succeeded.

Date: Tue Mar 16 23:14:57 2021
Total elapsed time: 0.218 seconds.

tnom = 27
temp = 27
method = modified trap
totiter = 40037
traniter = 40034
tranpoints = 20018
accept = 20018
rejected = 0
matrix size = 4
fillins = 0
solver = Normal
Matrix Compiler1: 82 bytes object code size  0.0/0.0/[0.0]
Matrix Compiler2: 188 bytes object code size  0.0/0.0/[0.0]

