Circuit: * D:\Users\Kelan\OneDrive - Jacobs University\Documents\3 Jacobs University\Thesis\Detlef Gabel\Projects\Extra Hardware Code\Simulations\Transistor\transistor.asc

Direct Newton iteration for .op point succeeded.

Date: Sun May 02 17:36:42 2021
Total elapsed time: 0.166 seconds.

tnom = 27
temp = 27
method = modified trap
totiter = 2096
traniter = 2080
tranpoints = 859
accept = 749
rejected = 110
matrix size = 10
fillins = 0
solver = Normal
Matrix Compiler1: 444 bytes object code size  0.2/0.1/[0.1]
Matrix Compiler2: off  [0.1]/0.1/0.1

